<?xml version="1.0" encoding="UTF-8"?>

<!-- generated on 2025-10-05 23:24:15 by Eclipse SUMO netedit Version 1.22.0
<neteditConfiguration xmlns:xsi="http://www.w3.org/2001/XMLSchema-instance" xsi:noNamespaceSchemaLocation="http://sumo.dlr.de/xsd/neteditConfiguration.xsd">

    <input>
        <sumocfg-file value="C:\Users\user\Desktop\2025-10-05-23-17-01\osm.sumocfg"/>
        <additional-files value="C:\Users\user\Desktop\2025-10-05-23-17-01\osm.poly.xml.gz"/>
        <route-files value="C:\Users\user\Desktop\2025-10-05-23-17-01\osm.passenger.trips.xml"/>
        <sumo-net-file value="C:\Users\user\Desktop\2025-10-05-23-17-01\stelvio.net.xml"/>
    </input>

    <output>
        <output-file value="C:\Users\user\Desktop\2025-10-05-23-17-01\stelvio.net.xml"/>
        <output.street-names value="true"/>
    </output>

    <processing>
        <geometry.min-radius.fix.railways value="false"/>
        <geometry.max-grade.fix value="false"/>
        <offset.disable-normalization value="true"/>
        <lefthand value="0"/>
    </processing>

    <junctions>
        <no-turnarounds value="true"/>
        <junctions.corner-detail value="5"/>
        <junctions.limit-turn-speed value="5.50"/>
        <rectangular-lane-cut value="0"/>
    </junctions>

    <pedestrian>
        <walkingareas value="0"/>
    </pedestrian>

</neteditConfiguration>
-->

<net version="1.20" junctionCornerDetail="5" limitTurnSpeed="5.50" xmlns:xsi="http://www.w3.org/2001/XMLSchema-instance" xsi:noNamespaceSchemaLocation="http://sumo.dlr.de/xsd/net_file.xsd">

    <location netOffset="-611423.27,-5153798.43" convBoundary="90.07,54.80,996.13,524.24" origBoundary="10.452944,46.528520,10.465982,46.533840" projParameter="+proj=utm +zone=32 +ellps=WGS84 +datum=WGS84 +units=m +no_defs"/>

    <type id="highway.secondary" priority="11" numLanes="1" speed="27.78" disallow="tram rail_urban rail rail_electric rail_fast ship container cable_car subway aircraft wheelchair scooter drone" oneway="0"/>

    <edge id=":12070073350_0" function="internal">
        <lane id=":12070073350_0_0" index="0" disallow="bus tram rail_urban rail rail_electric rail_fast ship container cable_car subway aircraft wheelchair scooter drone" speed="3.65" length="4.67" shape="996.93,486.19 997.57,487.48 997.51,488.37 996.77,488.86 995.33,488.95"/>
    </edge>
    <edge id=":2964504583_0" function="internal">
        <lane id=":2964504583_0_0" index="0" disallow="bus tram rail_urban rail rail_electric rail_fast ship container cable_car subway aircraft wheelchair scooter drone" speed="19.26" length="1.36" shape="264.57,345.79 264.19,345.94 263.93,346.02 263.65,346.06 263.25,346.10"/>
    </edge>
    <edge id=":2964504583_1" function="internal">
        <lane id=":2964504583_1_0" index="0" disallow="bus tram rail_urban rail rail_electric rail_fast ship container cable_car subway aircraft wheelchair scooter drone" speed="25.00" length="0.45" shape="262.96,342.92 263.09,342.90 263.19,342.89 263.27,342.86 263.40,342.81"/>
    </edge>
    <edge id=":964780888_0" function="internal">
        <lane id=":964780888_0_0" index="0" disallow="bus tram rail_urban rail rail_electric rail_fast ship container cable_car subway aircraft wheelchair scooter drone" speed="5.04" length="9.07" shape="631.49,522.13 634.95,522.95 636.72,522.80 636.79,521.70 635.16,519.63"/>
    </edge>
    <edge id=":964780888_1" function="internal">
        <lane id=":964780888_1_0" index="0" disallow="bus tram rail_urban rail rail_electric rail_fast ship container cable_car subway aircraft wheelchair scooter drone" speed="25.00" length="1.28" shape="637.46,517.40 637.72,517.67 637.89,517.87 638.03,518.09 638.22,518.42"/>
    </edge>

    <edge id="-767626960#0" from="964780888" to="12070073350" name="Stilfserjoch Staatsstraße - Strada Statale dello Stelvio" priority="11" type="highway.secondary" shape="636.61,518.82 635.62,517.80 634.24,516.85 621.91,509.96 603.98,497.06 583.85,481.52 578.85,477.01 573.35,473.22 567.23,468.13 560.85,462.47 550.13,449.87 545.23,442.40 535.93,425.10 528.35,406.30 519.37,380.13 516.51,370.90 513.42,359.71 507.71,340.12 506.64,334.10 505.64,326.86 504.91,316.43 503.49,304.15 501.36,277.25 499.07,256.80 498.01,249.75 494.05,235.93 492.10,230.05 488.36,222.49 487.64,220.30 487.41,218.24 487.67,216.69 488.52,215.40 489.51,214.77 491.21,214.48 492.74,214.92 494.06,215.82 495.68,217.65 510.37,241.41 514.41,247.69 519.24,256.50 521.57,261.32 523.67,267.50 524.87,274.86 525.67,281.70 528.53,301.89 530.67,308.91 533.62,315.99 537.40,323.34 544.65,334.40 551.24,345.29 566.24,368.38 575.12,383.78 585.24,398.01 589.33,402.15 594.04,406.08 599.18,409.20 605.60,412.54 619.58,418.86 624.25,422.07 628.00,425.41 632.23,430.06 642.33,440.10 646.80,443.15 651.40,445.23 657.16,447.40 662.53,448.97 673.66,450.92 687.46,453.08 693.15,454.56 699.12,456.89 712.49,462.57 738.02,475.19 749.49,481.31 756.19,483.48 777.24,490.99 790.03,494.77 796.71,497.61 817.93,504.77 823.45,506.78 837.04,513.09 840.16,514.08 841.74,514.28 843.18,514.14 844.26,513.49 844.86,512.42 845.00,511.61 844.95,510.74 844.53,509.42 843.72,508.13 842.09,506.60 840.50,505.70 815.39,494.62 808.21,490.80 803.88,488.26 797.18,483.57 781.18,472.97 766.62,464.44 759.78,461.49 753.21,458.19 742.73,452.05 738.06,448.63 733.01,443.56 726.84,437.70 714.78,424.98 707.82,420.38 691.14,407.41 680.14,398.24 669.22,390.64 662.70,384.68 656.08,378.20 647.94,365.18 634.84,325.25 633.17,320.86 630.58,316.10 623.70,304.73 610.64,285.43 609.76,283.29 609.52,281.72 609.77,280.12 610.75,278.67 612.45,277.65 613.58,277.41 614.68,277.47 615.70,277.75 617.06,278.43 619.00,280.07 626.08,290.17 631.29,297.18 656.58,328.88 672.75,350.16 677.89,356.04 682.35,359.56 690.18,364.83 697.85,370.25 709.46,376.16 721.93,383.37 732.73,389.01 750.03,399.63 760.27,404.74 768.63,408.43 779.69,411.87 809.02,422.05 829.28,428.18 838.57,431.78 846.94,435.63 854.27,439.81 870.36,450.94 877.27,455.88 882.84,460.59 890.76,466.83 892.50,467.74 894.51,468.19 896.03,467.88 896.96,467.25 897.85,465.88 897.96,464.41 897.33,462.47 895.72,460.10 888.48,453.37 875.02,441.33 859.46,425.66 855.36,422.40 840.47,412.79 833.65,408.56 824.13,403.32 813.81,397.02 808.11,393.74 804.22,391.36 802.81,390.20 801.63,388.60 801.14,387.07 801.32,385.28 802.38,383.33 803.41,382.42 805.16,381.77 806.98,381.73 809.18,382.26 810.98,383.06 816.63,386.40 822.16,390.25 828.44,393.04 839.15,398.20 848.74,402.03 857.73,405.83 878.50,417.24 892.53,426.06 905.42,433.38 934.31,450.73 976.83,476.80 988.74,483.28 996.13,487.57">
        <lane id="-767626960#0_0" index="0" disallow="bus tram rail_urban rail rail_electric rail_fast ship container cable_car subway aircraft wheelchair scooter drone" speed="25.00" length="1918.00" shape="635.16,519.63 634.58,519.03 633.39,518.21 621.05,511.31 603.02,498.34 582.82,482.75 577.86,478.27 572.38,474.50 566.19,469.34 559.70,463.59 548.85,450.83 543.85,443.22 534.48,425.78 526.85,406.86 517.85,380.63 514.97,371.35 511.88,360.15 506.15,340.48 505.06,334.35 504.05,327.03 503.32,316.58 501.90,304.31 499.77,277.40 497.48,257.01 496.44,250.09 492.52,236.40 490.62,230.66 486.88,223.10 486.07,220.64 485.80,218.20 486.15,216.09 487.37,214.23 488.92,213.25 491.30,212.84 493.43,213.45 495.13,214.61 496.97,216.69 511.72,240.56 515.79,246.87 520.66,255.77 523.05,260.71 525.23,267.11 526.45,274.64 527.26,281.49 530.10,301.54 532.18,308.37 535.07,315.32 538.78,322.53 546.00,333.55 552.60,344.44 567.60,367.54 576.47,382.91 586.47,396.98 590.41,400.97 594.97,404.77 599.97,407.80 606.30,411.10 620.37,417.46 625.24,420.81 629.13,424.27 633.39,428.95 643.35,438.86 647.59,441.75 652.01,443.75 657.67,445.88 662.89,447.41 673.92,449.34 687.79,451.51 693.64,453.04 699.72,455.41 713.16,461.12 738.75,473.77 750.12,479.83 756.71,481.97 777.74,489.47 790.57,493.26 797.28,496.11 818.46,503.26 824.06,505.30 837.62,511.60 840.51,512.51 841.76,512.67 842.66,512.58 843.07,512.34 843.33,511.88 843.39,511.52 843.36,511.03 843.07,510.10 842.47,509.16 841.13,507.90 839.78,507.13 814.69,496.06 807.43,492.20 803.02,489.61 796.28,484.89 780.33,474.33 765.90,465.87 759.10,462.94 752.45,459.60 741.85,453.39 737.01,449.85 731.89,444.70 725.71,438.83 713.74,426.21 706.89,421.68 690.14,408.66 679.17,399.51 668.22,391.89 661.60,385.84 654.82,379.21 646.48,365.86 633.33,325.78 631.71,321.53 629.19,316.90 622.35,305.59 609.22,286.19 608.21,283.72 607.90,281.72 608.24,279.52 609.62,277.48 611.86,276.14 613.46,275.80 614.94,275.88 616.28,276.25 617.95,277.08 620.19,278.98 627.38,289.23 632.56,296.20 657.84,327.90 673.99,349.15 679.00,354.88 683.29,358.27 691.09,363.51 698.68,368.88 710.22,374.75 722.70,381.97 733.52,387.62 750.81,398.23 760.95,403.29 769.19,406.93 780.19,410.35 809.51,420.53 829.80,426.67 839.19,430.31 847.67,434.21 855.12,438.45 871.28,449.63 878.25,454.62 883.85,459.35 891.63,465.48 893.05,466.22 894.53,466.55 895.40,466.38 895.79,466.11 896.29,465.35 896.34,464.60 895.88,463.18 894.50,461.15 887.40,454.55 873.92,442.49 858.39,426.85 854.43,423.70 839.61,414.14 832.84,409.94 823.33,404.70 812.99,398.40 807.29,395.12 803.29,392.67 801.64,391.31 800.19,389.34 799.51,387.24 799.76,384.80 801.11,382.32 802.57,381.02 804.86,380.18 807.15,380.13 809.70,380.74 811.71,381.64 817.50,385.05 822.95,388.85 829.11,391.59 839.79,396.73 849.35,400.55 858.43,404.39 879.31,415.86 893.35,424.69 906.23,432.00 935.14,449.36 977.63,475.41 989.52,481.89 996.93,486.19">
            <param key="origId" value="767626960"/>
        </lane>
        <param key="ref" value="SS38"/>
    </edge>
    <edge id="-767626960#1" from="2964504583" to="964780888" name="Stilfserjoch Staatsstraße - Strada Statale dello Stelvio" priority="11" type="highway.secondary" shape="263.56,344.47 264.81,343.98 266.10,343.04 267.11,341.85 267.64,340.66 267.77,339.49 267.41,337.89 266.67,336.50 265.83,335.47 265.15,334.79 260.10,330.88 250.11,323.37 241.22,316.95 234.36,312.57 228.78,307.89 222.11,301.37 219.35,297.93 217.20,294.30 215.29,289.71 212.17,274.11 200.67,225.86 198.16,216.63 195.12,208.88 190.94,201.06 185.82,193.89 180.10,186.55 177.60,182.66 176.13,178.63 176.20,175.15 176.63,170.65 179.65,154.95 181.14,146.68 184.12,127.35 185.18,114.55 185.78,108.99 186.36,107.06 187.21,105.50 188.55,104.19 189.76,103.62 190.47,103.46 192.12,103.45 193.74,103.84 194.96,104.52 195.85,105.40 196.46,106.43 196.96,108.04 197.11,109.95 193.64,132.60 191.07,146.39 188.51,157.17 187.33,163.21 187.36,165.44 187.81,166.80 188.39,167.65 189.24,168.38 190.43,168.94 191.99,169.23 193.59,169.22 194.85,168.87 195.83,168.30 196.55,167.57 197.06,166.73 197.64,164.77 199.15,151.93 200.94,144.12 204.09,132.44 207.13,123.83 209.79,113.46 210.96,107.28 211.91,105.28 213.07,104.22 213.84,103.94 214.75,103.91 216.45,104.40 217.39,105.05 218.24,106.25 218.66,107.74 218.72,109.02 217.46,116.01 216.06,122.25 215.05,129.21 213.11,145.21 212.49,156.74 213.48,161.68 215.51,165.82 218.46,170.54 221.23,173.87 228.19,181.29 234.25,187.19 244.72,199.75 248.66,206.07 259.28,224.98 271.72,244.75 280.93,255.38 286.50,260.66 293.25,265.35 300.57,270.10 311.97,276.87 317.40,280.62 322.85,283.64 327.52,286.85 331.28,290.00 335.73,294.23 343.72,305.57 345.13,307.05 346.81,307.86 348.36,307.90 350.08,307.20 350.88,306.42 351.35,305.52 351.54,304.04 351.31,302.54 350.88,301.24 350.33,300.08 345.47,292.93 338.77,285.37 330.34,276.65 326.05,271.95 318.68,264.59 303.95,248.47 297.11,240.24 291.90,232.76 287.55,226.13 282.76,217.68 278.96,209.35 275.89,199.70 273.26,188.88 269.77,178.78 269.52,177.57 269.50,176.21 269.71,175.29 270.15,174.43 271.38,173.39 272.58,172.93 273.72,172.81 274.73,172.97 276.00,173.58 277.24,174.77 278.09,176.08 280.33,182.35 285.00,196.59 286.93,201.08 290.39,205.77 294.83,210.67 301.36,216.22 312.68,224.69 331.23,239.28 342.07,248.51 350.36,256.41 357.17,263.66 363.47,270.80 368.89,278.14 373.47,283.96 376.30,289.14 382.17,302.83 387.26,316.51 389.20,322.92 392.12,329.58 394.66,336.80 396.00,342.37 396.98,358.87 397.52,361.14 398.33,362.57 399.67,363.77 401.66,364.52 402.40,364.61 403.63,364.43 404.13,364.20 404.95,363.48 405.72,362.00 406.17,359.81 406.22,357.75 400.07,330.65 397.39,319.73 391.83,292.30 389.19,282.20 386.79,275.29 383.05,266.49 379.07,258.78 376.40,253.20 372.70,244.36 366.64,232.71 360.55,219.93 354.20,207.25 347.62,195.96 341.10,186.91 332.59,174.29 325.93,165.86 325.09,163.94 324.99,162.69 325.15,161.78 325.82,160.40 326.59,159.83 327.55,159.61 329.19,159.77 331.41,160.52 333.75,161.74 337.09,164.63 347.24,174.86 364.12,190.97 380.99,208.21 387.93,216.29 396.22,226.94 404.80,238.64 422.68,265.22 432.43,285.92 439.01,300.39 448.23,318.97 451.52,327.19 454.72,337.97 457.61,351.56 460.70,361.97 463.32,373.82 465.76,386.62 468.69,399.96 470.89,406.46 473.67,412.15 477.72,418.59 489.37,433.42 495.96,438.92 503.43,443.98 509.89,447.48 525.82,459.94 532.29,465.75 539.46,470.59 545.72,473.89 558.08,481.81 586.07,500.58 593.81,504.72 602.22,508.62 617.36,516.39 625.60,521.41 629.85,523.31 632.21,524.02 633.81,524.24 635.38,524.14 636.66,523.52 637.24,522.72 637.51,521.63 637.31,520.09 636.61,518.82">
        <lane id="-767626960#1_0" index="0" disallow="bus tram rail_urban rail rail_electric rail_fast ship container cable_car subway aircraft wheelchair scooter drone" speed="25.00" length="1817.34" shape="263.40,342.81 264.03,342.57 265.00,341.86 265.74,340.99 266.08,340.24 266.15,339.58 265.90,338.45 265.33,337.39 264.63,336.53 264.09,335.99 259.13,332.15 249.16,324.66 240.32,318.27 233.41,313.86 227.71,309.08 220.92,302.45 218.03,298.84 215.77,295.02 213.75,290.18 210.61,274.45 199.12,226.26 196.64,217.13 193.66,209.55 189.58,201.91 184.54,194.85 178.79,187.48 176.16,183.38 174.52,178.90 174.60,175.06 175.04,170.42 178.08,154.65 179.56,146.42 182.53,127.16 183.59,114.40 184.21,108.67 184.88,106.44 185.92,104.52 187.62,102.86 189.24,102.10 190.29,101.86 192.31,101.85 194.33,102.34 195.93,103.23 197.12,104.41 197.93,105.78 198.54,107.74 198.72,110.01 195.22,132.87 192.64,146.72 190.07,157.51 188.93,163.35 188.96,165.17 189.26,166.08 189.59,166.57 190.12,167.02 190.92,167.40 192.13,167.63 193.37,167.62 194.22,167.38 194.84,167.02 195.28,166.58 195.58,166.08 196.07,164.45 197.57,151.66 199.39,143.73 202.56,131.96 205.60,123.36 208.23,113.11 209.43,106.78 210.60,104.31 212.22,102.82 213.53,102.35 214.95,102.30 217.14,102.94 218.53,103.89 219.71,105.55 220.25,107.48 220.33,109.13 219.03,116.33 217.63,122.54 216.64,129.42 214.70,145.35 214.10,156.62 215.01,161.16 216.91,165.04 219.76,169.60 222.43,172.81 229.33,180.17 235.43,186.10 246.02,198.81 250.04,205.25 260.66,224.16 273.01,243.79 282.09,254.27 287.51,259.42 294.14,264.02 301.41,268.74 312.83,275.52 318.24,279.26 323.69,282.28 328.49,285.57 332.35,288.81 336.95,293.18 344.96,304.55 346.09,305.74 347.20,306.27 348.07,306.29 349.19,305.84 349.58,305.45 349.80,305.03 349.92,304.06 349.75,302.92 349.39,301.84 348.94,300.88 344.20,293.91 337.60,286.46 329.17,277.75 324.89,273.06 317.52,265.70 302.74,249.52 295.84,241.21 290.57,233.66 286.18,226.96 281.33,218.41 277.46,209.93 274.35,200.13 271.72,189.33 268.22,179.20 267.92,177.75 267.90,176.04 268.19,174.74 268.87,173.42 270.55,171.99 272.20,171.36 273.76,171.20 275.21,171.43 276.92,172.25 278.48,173.74 279.53,175.37 281.84,181.83 286.50,196.02 288.33,200.28 291.63,204.76 295.95,209.52 302.36,214.97 313.65,223.42 332.24,238.04 343.14,247.32 351.50,255.28 358.35,262.58 364.72,269.79 370.16,277.17 374.81,283.08 377.74,288.44 383.66,302.24 388.78,316.00 390.70,322.37 393.61,328.99 396.20,336.35 397.59,342.13 398.57,358.64 399.02,360.55 399.59,361.55 400.51,362.38 402.04,362.95 402.38,363.00 403.17,362.88 403.67,362.48 404.20,361.46 404.57,359.63 404.62,357.91 398.51,331.02 395.83,320.08 390.27,292.66 387.66,282.67 385.30,275.87 381.60,267.17 377.64,259.49 374.94,253.85 371.25,245.04 365.21,233.42 359.11,220.63 352.79,208.01 346.28,196.83 339.79,187.83 331.30,175.23 324.55,166.69 323.52,164.34 323.38,162.61 323.61,161.28 324.55,159.35 325.91,158.35 327.45,157.99 329.53,158.20 332.04,159.04 334.66,160.41 338.18,163.46 348.36,173.72 365.24,189.83 382.17,207.13 389.17,215.28 397.50,225.98 406.11,237.72 424.08,264.43 433.88,285.25 440.46,299.70 449.69,318.32 453.03,326.66 456.27,337.58 459.16,351.17 462.25,361.57 464.89,373.50 467.33,386.30 470.23,399.53 472.37,405.85 475.07,411.37 479.03,417.67 490.52,432.30 496.92,437.64 504.26,442.61 510.77,446.14 526.85,458.71 533.28,464.49 540.28,469.22 546.53,472.51 558.96,480.47 586.89,499.21 594.52,503.29 602.92,507.18 618.14,514.99 626.35,519.99 630.41,521.81 631.49,522.13">
            <param key="origId" value="767626960"/>
        </lane>
        <param key="ref" value="SS38"/>
    </edge>
    <edge id="-767626960#2" from="2471575434" to="2964504583" name="Stilfserjoch Staatsstraße - Strada Statale dello Stelvio" priority="11" type="highway.secondary" shape="90.07,54.80 97.27,60.93 103.25,66.32 107.21,71.48 110.45,77.28 112.45,83.15 115.69,94.30 120.85,116.39 125.30,137.03 131.83,173.71 133.87,191.13 135.04,197.41 136.41,201.49 138.44,205.27 141.46,208.97 152.74,219.64 161.27,228.15 165.20,232.94 167.89,237.30 173.43,249.55 181.30,266.31 193.33,288.63 198.18,296.67 202.73,303.62 206.60,308.36 210.24,312.12 221.27,319.25 245.47,331.84 249.63,334.90 253.99,338.57 258.01,342.55 259.31,343.56 261.22,344.42 262.36,344.58 263.56,344.47">
        <lane id="-767626960#2_0" index="0" disallow="bus tram rail_urban rail rail_electric rail_fast ship container cable_car subway aircraft wheelchair scooter drone" speed="25.00" length="353.37" shape="91.11,53.58 98.32,59.73 104.43,65.23 108.55,70.60 111.92,76.63 113.98,82.67 117.24,93.89 122.41,116.04 126.87,136.72 133.41,173.48 135.45,190.89 136.59,197.01 137.88,200.85 139.78,204.38 142.63,207.88 153.85,218.49 162.46,227.07 166.51,232.01 169.31,236.55 174.88,248.88 182.73,265.59 194.72,287.84 199.53,295.82 204.02,302.67 207.80,307.30 211.26,310.88 222.08,317.87 246.32,330.48 250.62,333.64 255.07,337.39 259.07,341.35 260.14,342.18 261.67,342.87 262.40,342.97 262.96,342.92">
            <param key="origId" value="767626960"/>
        </lane>
        <param key="ref" value="SS38"/>
    </edge>
    <edge id="767626960#0" from="12070073350" to="964780888" name="Stilfserjoch Staatsstraße - Strada Statale dello Stelvio" priority="11" type="highway.secondary" shape="996.13,487.57 988.74,483.28 976.83,476.80 934.31,450.73 905.42,433.38 892.53,426.06 878.50,417.24 857.73,405.83 848.74,402.03 839.15,398.20 828.44,393.04 822.16,390.25 816.63,386.40 810.98,383.06 809.18,382.26 806.98,381.73 805.16,381.77 803.41,382.42 802.38,383.33 801.32,385.28 801.14,387.07 801.63,388.60 802.81,390.20 804.22,391.36 808.11,393.74 813.81,397.02 824.13,403.32 833.65,408.56 840.47,412.79 855.36,422.40 859.46,425.66 875.02,441.33 888.48,453.37 895.72,460.10 897.33,462.47 897.96,464.41 897.85,465.88 896.96,467.25 896.03,467.88 894.51,468.19 892.50,467.74 890.76,466.83 882.84,460.59 877.27,455.88 870.36,450.94 854.27,439.81 846.94,435.63 838.57,431.78 829.28,428.18 809.02,422.05 779.69,411.87 768.63,408.43 760.27,404.74 750.03,399.63 732.73,389.01 721.93,383.37 709.46,376.16 697.85,370.25 690.18,364.83 682.35,359.56 677.89,356.04 672.75,350.16 656.58,328.88 631.29,297.18 626.08,290.17 619.00,280.07 617.06,278.43 615.70,277.75 614.68,277.47 613.58,277.41 612.45,277.65 610.75,278.67 609.77,280.12 609.52,281.72 609.76,283.29 610.64,285.43 623.70,304.73 630.58,316.10 633.17,320.86 634.84,325.25 647.94,365.18 656.08,378.20 662.70,384.68 669.22,390.64 680.14,398.24 691.14,407.41 707.82,420.38 714.78,424.98 726.84,437.70 733.01,443.56 738.06,448.63 742.73,452.05 753.21,458.19 759.78,461.49 766.62,464.44 781.18,472.97 797.18,483.57 803.88,488.26 808.21,490.80 815.39,494.62 840.50,505.70 842.09,506.60 843.72,508.13 844.53,509.42 844.95,510.74 845.00,511.61 844.86,512.42 844.26,513.49 843.18,514.14 841.74,514.28 840.16,514.08 837.04,513.09 823.45,506.78 817.93,504.77 796.71,497.61 790.03,494.77 777.24,490.99 756.19,483.48 749.49,481.31 738.02,475.19 712.49,462.57 699.12,456.89 693.15,454.56 687.46,453.08 673.66,450.92 662.53,448.97 657.16,447.40 651.40,445.23 646.80,443.15 642.33,440.10 632.23,430.06 628.00,425.41 624.25,422.07 619.58,418.86 605.60,412.54 599.18,409.20 594.04,406.08 589.33,402.15 585.24,398.01 575.12,383.78 566.24,368.38 551.24,345.29 544.65,334.40 537.40,323.34 533.62,315.99 530.67,308.91 528.53,301.89 525.67,281.70 524.87,274.86 523.67,267.50 521.57,261.32 519.24,256.50 514.41,247.69 510.37,241.41 495.68,217.65 494.06,215.82 492.74,214.92 491.21,214.48 489.51,214.77 488.52,215.40 487.67,216.69 487.41,218.24 487.64,220.30 488.36,222.49 492.10,230.05 494.05,235.93 498.01,249.75 499.07,256.80 501.36,277.25 503.49,304.15 504.91,316.43 505.64,326.86 506.64,334.10 507.71,340.12 513.42,359.71 516.51,370.90 519.37,380.13 528.35,406.30 535.93,425.10 545.23,442.40 550.13,449.87 560.85,462.47 567.23,468.13 573.35,473.22 578.85,477.01 583.85,481.52 603.98,497.06 621.91,509.96 634.24,516.85 635.62,517.80 636.61,518.82">
        <lane id="767626960#0_0" index="0" disallow="bus tram rail_urban rail rail_electric rail_fast ship container cable_car subway aircraft wheelchair scooter drone" speed="25.00" length="1908.77" shape="995.33,488.95 987.96,484.67 976.03,478.19 933.48,452.10 904.61,434.76 891.71,427.43 877.69,418.62 857.03,407.27 848.13,403.51 838.51,399.67 827.77,394.49 821.37,391.65 815.76,387.75 810.25,384.48 808.66,383.78 806.81,383.33 805.46,383.36 804.25,383.82 803.65,384.34 802.88,385.76 802.77,386.90 803.07,387.86 803.98,389.09 805.15,390.05 808.93,392.36 814.63,395.64 824.93,401.94 834.46,407.18 841.33,411.44 856.29,421.10 860.53,424.47 876.12,440.17 889.56,452.19 896.94,459.05 898.78,461.76 899.58,464.22 899.41,466.41 898.13,468.39 896.66,469.38 894.49,469.83 891.95,469.26 889.89,468.18 881.83,461.83 876.29,457.14 869.44,452.25 853.42,441.17 846.21,437.05 837.95,433.25 828.76,429.69 808.53,423.57 779.19,413.39 768.07,409.93 759.59,406.19 749.25,401.03 731.94,390.40 721.16,384.77 708.70,377.57 697.02,371.62 689.27,366.15 681.41,360.85 676.78,357.20 671.51,351.17 655.32,329.86 630.02,298.16 624.78,291.11 617.81,281.16 616.17,279.78 615.12,279.25 614.42,279.06 613.70,279.02 613.04,279.16 611.88,279.86 611.30,280.72 611.14,281.72 611.31,282.86 612.06,284.67 625.05,303.87 631.97,315.30 634.63,320.19 636.35,324.72 649.40,364.50 657.34,377.19 663.80,383.52 670.22,389.39 681.11,396.97 692.14,406.16 708.75,419.08 715.82,423.75 727.97,436.57 734.13,442.42 739.11,447.41 743.61,450.71 753.97,456.78 760.46,460.04 767.34,463.01 782.03,471.61 798.08,482.25 804.74,486.91 808.99,489.40 816.09,493.18 841.22,504.27 843.05,505.30 844.97,507.10 845.99,508.74 846.54,510.45 846.61,511.70 846.39,512.96 845.45,514.64 843.70,515.70 841.72,515.89 839.81,515.65 836.46,514.58 822.84,508.26 817.40,506.28 796.14,499.11 789.49,496.28 776.74,492.51 755.67,484.99 748.86,482.79 737.29,476.61 711.82,464.02 698.52,458.37 692.66,456.08 687.13,454.65 673.40,452.50 662.17,450.53 656.65,448.92 650.79,446.71 646.01,444.55 641.31,441.34 631.07,431.17 626.87,426.55 623.26,423.33 618.79,420.26 604.90,413.98 598.39,410.60 593.11,407.39 588.25,403.33 584.01,399.04 573.77,384.65 564.88,369.22 549.88,346.14 543.30,335.25 536.02,324.15 532.17,316.66 529.16,309.45 526.96,302.24 524.08,281.91 523.29,275.08 522.11,267.89 520.09,261.93 517.82,257.23 513.03,248.51 509.02,242.26 494.39,218.61 492.99,217.03 492.05,216.39 491.12,216.12 490.10,216.29 489.67,216.57 489.19,217.29 489.02,218.28 489.21,219.96 489.84,221.88 493.58,229.44 495.58,235.46 499.58,249.41 500.66,256.59 502.95,277.10 505.08,303.99 506.50,316.28 507.23,326.69 508.22,333.85 509.27,339.76 514.96,359.27 518.05,370.45 520.89,379.63 529.85,405.74 537.38,424.42 546.61,441.58 551.41,448.91 562.00,461.35 568.27,466.92 574.32,471.94 579.84,475.75 584.88,480.29 604.94,495.78 622.77,508.61 635.09,515.49 636.66,516.57 637.46,517.40">
            <param key="origId" value="767626960"/>
        </lane>
        <param key="ref" value="SS38"/>
    </edge>
    <edge id="767626960#1" from="964780888" to="2964504583" name="Stilfserjoch Staatsstraße - Strada Statale dello Stelvio" priority="11" type="highway.secondary" shape="636.61,518.82 637.31,520.09 637.51,521.63 637.24,522.72 636.66,523.52 635.38,524.14 633.81,524.24 632.21,524.02 629.85,523.31 625.60,521.41 617.36,516.39 602.22,508.62 593.81,504.72 586.07,500.58 558.08,481.81 545.72,473.89 539.46,470.59 532.29,465.75 525.82,459.94 509.89,447.48 503.43,443.98 495.96,438.92 489.37,433.42 477.72,418.59 473.67,412.15 470.89,406.46 468.69,399.96 465.76,386.62 463.32,373.82 460.70,361.97 457.61,351.56 454.72,337.97 451.52,327.19 448.23,318.97 439.01,300.39 432.43,285.92 422.68,265.22 404.80,238.64 396.22,226.94 387.93,216.29 380.99,208.21 364.12,190.97 347.24,174.86 337.09,164.63 333.75,161.74 331.41,160.52 329.19,159.77 327.55,159.61 326.59,159.83 325.82,160.40 325.15,161.78 324.99,162.69 325.09,163.94 325.93,165.86 332.59,174.29 341.10,186.91 347.62,195.96 354.20,207.25 360.55,219.93 366.64,232.71 372.70,244.36 376.40,253.20 379.07,258.78 383.05,266.49 386.79,275.29 389.19,282.20 391.83,292.30 397.39,319.73 400.07,330.65 406.22,357.75 406.17,359.81 405.72,362.00 404.95,363.48 404.13,364.20 403.63,364.43 402.40,364.61 401.66,364.52 399.67,363.77 398.33,362.57 397.52,361.14 396.98,358.87 396.00,342.37 394.66,336.80 392.12,329.58 389.20,322.92 387.26,316.51 382.17,302.83 376.30,289.14 373.47,283.96 368.89,278.14 363.47,270.80 357.17,263.66 350.36,256.41 342.07,248.51 331.23,239.28 312.68,224.69 301.36,216.22 294.83,210.67 290.39,205.77 286.93,201.08 285.00,196.59 280.33,182.35 278.09,176.08 277.24,174.77 276.00,173.58 274.73,172.97 273.72,172.81 272.58,172.93 271.38,173.39 270.15,174.43 269.71,175.29 269.50,176.21 269.52,177.57 269.77,178.78 273.26,188.88 275.89,199.70 278.96,209.35 282.76,217.68 287.55,226.13 291.90,232.76 297.11,240.24 303.95,248.47 318.68,264.59 326.05,271.95 330.34,276.65 338.77,285.37 345.47,292.93 350.33,300.08 350.88,301.24 351.31,302.54 351.54,304.04 351.35,305.52 350.88,306.42 350.08,307.20 348.36,307.90 346.81,307.86 345.13,307.05 343.72,305.57 335.73,294.23 331.28,290.00 327.52,286.85 322.85,283.64 317.40,280.62 311.97,276.87 300.57,270.10 293.25,265.35 286.50,260.66 280.93,255.38 271.72,244.75 259.28,224.98 248.66,206.07 244.72,199.75 234.25,187.19 228.19,181.29 221.23,173.87 218.46,170.54 215.51,165.82 213.48,161.68 212.49,156.74 213.11,145.21 215.05,129.21 216.06,122.25 217.46,116.01 218.72,109.02 218.66,107.74 218.24,106.25 217.39,105.05 216.45,104.40 214.75,103.91 213.84,103.94 213.07,104.22 211.91,105.28 210.96,107.28 209.79,113.46 207.13,123.83 204.09,132.44 200.94,144.12 199.15,151.93 197.64,164.77 197.06,166.73 196.55,167.57 195.83,168.30 194.85,168.87 193.59,169.22 191.99,169.23 190.43,168.94 189.24,168.38 188.39,167.65 187.81,166.80 187.36,165.44 187.33,163.21 188.51,157.17 191.07,146.39 193.64,132.60 197.11,109.95 196.96,108.04 196.46,106.43 195.85,105.40 194.96,104.52 193.74,103.84 192.12,103.45 190.47,103.46 189.76,103.62 188.55,104.19 187.21,105.50 186.36,107.06 185.78,108.99 185.18,114.55 184.12,127.35 181.14,146.68 179.65,154.95 176.63,170.65 176.20,175.15 176.13,178.63 177.60,182.66 180.10,186.55 185.82,193.89 190.94,201.06 195.12,208.88 198.16,216.63 200.67,225.86 212.17,274.11 215.29,289.71 217.20,294.30 219.35,297.93 222.11,301.37 228.78,307.89 234.36,312.57 241.22,316.95 250.11,323.37 260.10,330.88 265.15,334.79 265.83,335.47 266.67,336.50 267.41,337.89 267.77,339.49 267.64,340.66 267.11,341.85 266.10,343.04 264.81,343.98 263.56,344.47">